version 2
run Default-0-20190708-14:18:29-16880
attr configname Default
attr datetime 20190708-14:18:29
attr experiment Default
attr inifile omnetpp.ini
attr iterationvars ""
attr iterationvarsf ""
attr measurement ""
attr network TutorialScenario
attr processid 16880
attr repetition 0
attr replication #0
attr resultdir results
attr runnumber 0
attr seedset 0
param **.debug false
param **.coreDebug false
param *.playgroundSizeX 2500m
param *.playgroundSizeY 2500m
param *.playgroundSizeZ 50m
param *.annotations.draw true
param *.manager.updateInterval 1s
param *.manager.host "\"localhost\""
param *.manager.port 9999
param *.manager.autoShutdown true
param *.manager.launchConfig "xmldoc(\"intersect.launchd.xml\")"
param *.rsu[0].mobility.x 135
param *.rsu[0].mobility.y 135
param *.rsu[0].mobility.z 0
param *.rsu[*].applType "\"TutorialAppl\""
param *.rsu[*].appl.headerLength "80 bit"
param *.rsu[*].appl.sendBeacons false
param *.rsu[*].appl.dataOnSch false
param *.rsu[*].appl.beaconInterval 1s
param *.rsu[*].appl.beaconUserPriority 1
param *.rsu[*].appl.dataUserPriority 1
param *.connectionManager.sendDirect true
param *.connectionManager.maxInterfDist 2600m
param *.connectionManager.drawMaxIntfDist false
param *.**.nic.mac1609_4.useServiceChannel false
param *.**.nic.mac1609_4.txPower 20mW
param *.**.nic.mac1609_4.bitrate 6Mbps
param *.**.nic.phy80211p.sensitivity -89dBm
param *.**.nic.phy80211p.useThermalNoise true
param *.**.nic.phy80211p.thermalNoise -110dBm
param *.**.nic.phy80211p.decider "xmldoc(\"config.xml\")"
param *.**.nic.phy80211p.analogueModels "xmldoc(\"config.xml\")"
param *.**.nic.phy80211p.usePropagationDelay true
param *.**.nic.phy80211p.antenna "xmldoc(\"antenna.xml\", \"/root/Antenna[@id='monopole']\")"
param *.node[*].applType "\"TutorialAppl\""
param *.node[*].appl.headerLength "80 bit"
param *.node[*].appl.sendBeacons false
param *.node[*].appl.dataOnSch false
param *.node[*].appl.beaconInterval 1s
param *.node[*].veinsmobilityType.debug true
param *.node[*].veinsmobility.x 0
param *.node[*].veinsmobility.y 0
param *.node[*].veinsmobility.z 1.895

vector 0 TutorialScenario.node[0].veinsmobility posx ETV
vector 1 TutorialScenario.node[0].veinsmobility posy ETV
vector 2 TutorialScenario.node[1].veinsmobility posx ETV
vector 3 TutorialScenario.node[1].veinsmobility posy ETV
vector 4 TutorialScenario.node[0].veinsmobility speed ETV
vector 5 TutorialScenario.node[1].veinsmobility speed ETV
vector 6 TutorialScenario.node[0].veinsmobility acceleration ETV
vector 7 TutorialScenario.node[0].veinsmobility co2emission ETV
vector 8 TutorialScenario.node[1].veinsmobility acceleration ETV
vector 9 TutorialScenario.node[1].veinsmobility co2emission ETV
0	2	1	30.422187683101
0	3	2	30.422187683101
0	4	3	31.360734724777
0	5	4	32.860480086749
0	6	5	34.957523898863
0	7	6	37.542629866687
0	8	7	40.864942279345
0	9	8	44.852206063574
0	10	9	49.442010955964
0	11	10	54.691829502037
0	12	11	60.559006580769
0	13	12	67.04575907949
0	14	13	74.092314022
0	15	14	81.68080835427
0	16	15	89.889526145287
0	17	16	98.666197604174
0	18	17	108.00153035719
1	2	1	136.65
1	3	2	136.65
1	4	3	136.65
1	5	4	136.65
1	6	5	136.65
1	7	6	136.65
1	8	7	136.65
1	9	8	136.65
1	10	9	136.65
1	11	10	136.65
1	12	11	136.65
1	13	12	136.65
1	14	13	136.65
1	15	14	136.65
1	16	15	136.65
1	17	16	136.65
1	18	17	136.65
2	2	1	239.57464268111
2	3	2	239.57464268111
2	4	3	238.60700153538
2	5	4	237.07782171228
2	6	5	235
2	7	6	232.2629872658
2	8	7	228.92111491878
2	9	8	225.01334639472
2	10	9	220.53125263801
2	11	10	215.48429001642
2	12	11	209.84530173423
2	13	12	203.59147990519
2	14	13	196.78297800378
2	15	14	189.38676472181
2	16	15	181.3776242209
2	17	16	172.71969634114
2	18	17	163.45279249558
3	2	1	133.35
3	3	2	133.35
3	4	3	133.35
3	5	4	133.35
3	6	5	133.35
3	7	6	133.35
3	8	7	133.35
3	9	8	133.35
3	10	9	133.35
3	11	10	133.35
3	12	11	133.35
3	13	12	133.35
3	14	13	133.35
3	15	14	133.35
3	16	15	133.35
3	17	16	133.35
3	18	17	133.35
4	3	2	1.2109725133778
4	4	3	1.7606579708384
4	5	4	2.3491684260947
4	6	5	2.9800340817293
4	7	6	3.6118010950351
4	8	7	4.2666159035807
4	9	8	4.8825994728954
4	10	9	5.5372906932963
4	11	10	6.1504283510876
4	12	11	6.755940811502
4	13	12	7.2840362403897
4	14	13	7.8628212840559
4	15	14	8.4703778779769
4	16	15	9.0196839356871
4	17	16	9.597687732529
4	18	17	10.168024375269
5	3	2	1.2341948287431
5	4	3	1.7922543505169
5	5	4	2.4429005833957
5	6	5	3.0198937816415
5	7	6	3.5914633351434
5	8	7	4.1653036328275
5	9	8	4.7593732298035
5	10	9	5.2967953045536
5	11	10	5.9220713620689
5	12	11	6.4932601294816
5	13	12	7.0689905340373
5	14	13	7.6700058991238
5	15	14	8.2925751582123
5	16	15	8.9481652268451
5	17	16	9.5606817775741
5	18	17	10.16474457489
6	4	3	0.54968545746058
6	5	4	0.58851045525633
6	6	5	0.63086565563455
6	7	6	0.6317670133058
6	8	7	0.65481480854563
6	9	8	0.6159835693147
6	10	9	0.65469122040086
6	11	10	0.61313765779138
6	12	11	0.60551246041432
6	13	12	0.52809542888776
6	14	13	0.57878504366614
6	15	14	0.60755659392103
6	16	15	0.5493060577102
6	17	16	0.57800379684195
6	18	17	0.57033664274029
7	4	3	1.4286800823197
7	5	4	1.5577064475287
7	6	5	1.7092818832741
7	7	6	1.8385036853332
7	8	7	1.9963128043507
7	9	8	2.0811213613671
7	10	9	2.2664801458022
7	11	10	2.3370145304042
7	12	11	2.4502768302097
7	13	12	2.4241301800455
7	14	13	2.630971754009
7	15	14	2.8149945235617
7	16	15	2.8069472429189
7	17	16	2.9916118218182
7	18	17	3.0952260763087
8	4	3	0.55805952177383
8	5	4	0.65064623287879
8	6	5	0.57699319824576
8	7	6	0.5715695535019
8	8	7	0.57384029768407
8	9	8	0.59406959697604
8	10	9	0.53742207475007
8	11	10	0.62527605751529
8	12	11	0.57118876741268
8	13	12	0.5757304045558
8	14	13	0.6010153650865
8	15	14	0.62256925908849
8	16	15	0.65559006863274
8	17	16	0.61251655072905
8	18	17	0.60406279731542
9	4	3	1.4380346683728
9	5	4	1.612253122633
9	6	5	1.6781562745319
9	7	6	1.7822494657681
9	8	7	1.8936529887538
9	9	8	2.0309544516367
9	10	9	2.0652797113061
9	11	10	2.3072731207466
9	12	11	2.3423650002818
9	13	12	2.4644698935415
9	14	13	2.6326438894535
9	15	14	2.8069245121
9	16	15	3.0216319018028
9	17	16	3.0632523675972
9	18	17	3.177142178271
7	19	18	3.4194703614432
7	20	19	3.4966184787262
7	21	20	3.7615303901243
7	22	21	3.9074669428927
7	23	22	3.8854498720785
7	24	23	3.8450283759157
7	25	24	4.4071548036909
7	26	25	4.4692177704197
7	27	26	4.2872711261094
6	19	18	0.64156030632556
6	20	19	0.61649044850841
6	21	20	0.65461781926453
6	22	21	0.6495396524109
6	23	22	0.59595457564108
6	24	23	0.54427744102664
6	25	24	0.66041989995167
6	26	25	0.63103650726378
6	27	26	0.54464652201161
4	19	18	10.809584681595
4	20	19	11.426075130103
4	21	20	12.080692949368
4	22	21	12.730232601779
4	23	22	13.32618717742
4	24	23	13.870464618446
4	25	24	14.530884518398
4	26	25	15.161921025662
4	27	26	15.706567547674
1	19	18	136.65
1	20	19	136.65
1	21	20	136.65
1	22	21	136.65
1	23	22	136.65
1	24	23	136.65
1	25	24	136.65
1	26	25	136.65
1	27	26	136.65
0	19	18	117.91667623634
0	20	19	128.45745158842
0	21	20	139.63036261104
0	22	21	151.41408624082
0	23	22	163.85350916869
0	24	23	176.89858782278
0	25	24	190.52143180496
0	26	25	204.75131525686
0	27	26	219.61670749629
9	19	18	3.300491734001
9	20	19	3.2012017058203
9	21	20	3.6552234675291
9	22	21	3.4632597372821
9	23	22	3.7394071035308
9	24	23	3.9996373991253
9	25	24	4.0795227994611
9	26	25	4.2577197781357
9	27	26	4.6318613885514
8	19	18	0.59978133180179
8	20	19	0.51997029853054
8	21	20	0.63168664217927
8	22	21	0.52533702239394
8	23	22	0.57321821879595
8	24	23	0.60879939760082
8	25	24	0.58933935482055
8	26	25	0.59763250672258
8	27	26	0.65319490331225
5	19	18	10.764525906691
5	20	19	11.284496205222
5	21	20	11.916182847401
5	22	21	12.441519869795
5	23	22	13.014738088591
5	24	23	13.623537486192
5	25	24	14.212876841012
5	26	25	14.810509347735
5	27	26	15.463704251047
3	19	18	133.35
3	20	19	133.35
3	21	20	133.35
3	22	21	133.35
3	23	22	133.35
3	24	23	133.35
3	25	24	133.35
3	26	25	133.35
3	27	26	133.35
2	19	18	153.55223933107
2	20	19	143.04051586872
2	21	20	131.98165069234
2	22	21	120.35421361513
2	23	22	108.15340138606
2	24	23	95.396644618208
2	25	24	82.039761495518
2	26	25	68.108635335991
2	27	26	53.582386311948

