version 2
run Default-0-20190705-12:22:46-11576
attr configname Default
attr datetime 20190705-12:22:46
attr experiment Default
attr inifile omnetpp.ini
attr iterationvars ""
attr iterationvarsf ""
attr measurement ""
attr network TutorialScenario
attr processid 11576
attr repetition 0
attr replication #0
attr resultdir results
attr runnumber 0
attr seedset 0
param **.debug false
param **.coreDebug false
param *.playgroundSizeX 2500m
param *.playgroundSizeY 2500m
param *.playgroundSizeZ 50m
param *.annotations.draw true
param *.manager.updateInterval 1s
param *.manager.host "\"localhost\""
param *.manager.port 9999
param *.manager.autoShutdown true
param *.manager.launchConfig "xmldoc(\"intersect.launchd.xml\")"
param *.rsu[0].mobility.x 2000
param *.rsu[0].mobility.y 2000
param *.rsu[0].mobility.z 3
param *.rsu[*].applType "\"TutorialAppl\""
param *.rsu[*].appl.headerLength "80 bit"
param *.rsu[*].appl.sendBeacons true
param *.rsu[*].appl.dataOnSch false
param *.rsu[*].appl.beaconInterval 1s
param *.rsu[*].appl.beaconUserPriority 7
param *.rsu[*].appl.dataUserPriority 5
param *.connectionManager.sendDirect true
param *.connectionManager.maxInterfDist 2600m
param *.connectionManager.drawMaxIntfDist false
param *.**.nic.mac1609_4.useServiceChannel false
param *.**.nic.mac1609_4.txPower 20mW
param *.**.nic.mac1609_4.bitrate 6Mbps
param *.**.nic.phy80211p.sensitivity -89dBm
param *.**.nic.phy80211p.useThermalNoise true
param *.**.nic.phy80211p.thermalNoise -110dBm
param *.**.nic.phy80211p.decider "xmldoc(\"config.xml\")"
param *.**.nic.phy80211p.analogueModels "xmldoc(\"config.xml\")"
param *.**.nic.phy80211p.usePropagationDelay true
param *.**.nic.phy80211p.antenna "xmldoc(\"antenna.xml\", \"/root/Antenna[@id='monopole']\")"
param *.node[*].applType "\"TutorialAppl\""
param *.node[*].appl.headerLength "80 bit"
param *.node[*].appl.sendBeacons true
param *.node[*].appl.dataOnSch false
param *.node[*].appl.beaconInterval 1s
param *.node[*].veinsmobilityType.debug true
param *.node[*].veinsmobility.x 0
param *.node[*].veinsmobility.y 0
param *.node[*].veinsmobility.z 1.895

vector 0 TutorialScenario.node[0].veinsmobility posx ETV
vector 1 TutorialScenario.node[0].veinsmobility posy ETV
vector 2 TutorialScenario.node[1].veinsmobility posx ETV
vector 3 TutorialScenario.node[1].veinsmobility posy ETV
vector 4 TutorialScenario.node[0].veinsmobility speed ETV
vector 5 TutorialScenario.node[1].veinsmobility speed ETV
vector 6 TutorialScenario.node[0].veinsmobility acceleration ETV
vector 7 TutorialScenario.node[0].veinsmobility co2emission ETV
vector 8 TutorialScenario.node[1].veinsmobility acceleration ETV
vector 9 TutorialScenario.node[1].veinsmobility co2emission ETV
7	101	3	1.4286800823197
7	147	4	1.5577064475287
7	193	5	1.7092818832741
7	239	6	1.8385036853332
7	285	7	1.9963128043507
7	331	8	2.0811213613671
7	377	9	2.2664801458022
7	423	10	2.3370145304042
7	469	11	2.4502768302097
7	515	12	2.4241301800455
7	561	13	2.630971754009
7	603	14	2.8149945235617
7	645	15	2.8069472429189
7	687	16	2.9916118218182
7	729	17	3.0952260763087
7	771	18	3.4194703614432
7	813	19	3.4966184787262
7	855	20	3.7615303901243
7	897	21	3.9074669428927
7	939	22	3.8854498720785
7	981	23	3.8450283759157
7	1027	24	4.4071548036909
7	1073	25	4.4692177704197
7	1119	26	4.2872711261094
6	101	3	0.54968545746058
6	147	4	0.58851045525633
6	193	5	0.63086565563455
6	239	6	0.6317670133058
6	285	7	0.65481480854563
6	331	8	0.6159835693147
6	377	9	0.65469122040086
6	423	10	0.61313765779138
6	469	11	0.60551246041432
6	515	12	0.52809542888776
6	561	13	0.57878504366614
6	603	14	0.60755659392103
6	645	15	0.5493060577102
6	687	16	0.57800379684195
6	729	17	0.57033664274029
6	771	18	0.64156030632556
6	813	19	0.61649044850841
6	855	20	0.65461781926453
6	897	21	0.6495396524109
6	939	22	0.59595457564108
6	981	23	0.54427744102664
6	1027	24	0.66041989995167
6	1073	25	0.63103650726378
6	1119	26	0.54464652201161
4	55	2	1.2109725133778
4	101	3	1.7606579708384
4	147	4	2.3491684260947
4	193	5	2.9800340817293
4	239	6	3.6118010950351
4	285	7	4.2666159035807
4	331	8	4.8825994728954
4	377	9	5.5372906932963
4	423	10	6.1504283510876
4	469	11	6.755940811502
4	515	12	7.2840362403897
4	561	13	7.8628212840559
4	603	14	8.4703778779769
4	645	15	9.0196839356871
4	687	16	9.597687732529
4	729	17	10.168024375269
4	771	18	10.809584681595
4	813	19	11.426075130103
4	855	20	12.080692949368
4	897	21	12.730232601779
4	939	22	13.32618717742
4	981	23	13.870464618446
4	1027	24	14.530884518398
4	1073	25	15.161921025662
4	1119	26	15.706567547674
1	11	1	136.65
1	55	2	136.65
1	101	3	136.65
1	147	4	136.65
1	193	5	136.65
1	239	6	136.65
1	285	7	136.65
1	331	8	136.65
1	377	9	136.65
1	423	10	136.65
1	469	11	136.65
1	515	12	136.65
1	561	13	136.65
1	603	14	136.65
1	645	15	136.65
1	687	16	136.65
1	729	17	136.65
1	771	18	136.65
1	813	19	136.65
1	855	20	136.65
1	897	21	136.65
1	939	22	136.65
1	981	23	136.65
1	1027	24	136.65
1	1073	25	136.65
1	1119	26	136.65
0	11	1	30.422187683101
0	55	2	30.422187683101
0	101	3	31.360734724777
0	147	4	32.860480086749
0	193	5	34.957523898863
0	239	6	37.542629866687
0	285	7	40.864942279345
0	331	8	44.852206063574
0	377	9	49.442010955964
0	423	10	54.691829502037
0	469	11	60.559006580769
0	515	12	67.04575907949
0	561	13	74.092314022
0	603	14	81.68080835427
0	645	15	89.889526145287
0	687	16	98.666197604174
0	729	17	108.00153035719
0	771	18	117.91667623634
0	813	19	128.45745158842
0	855	20	139.63036261104
0	897	21	151.41408624082
0	939	22	163.85350916869
0	981	23	176.89858782278
0	1027	24	190.52143180496
0	1073	25	204.75131525686
0	1119	26	219.61670749629
9	101	3	1.4380346683728
9	147	4	1.612253122633
9	193	5	1.6781562745319
9	239	6	1.7822494657681
9	285	7	1.8936529887538
9	331	8	2.0309544516367
9	377	9	2.0652797113061
9	423	10	2.3072731207466
9	469	11	2.3423650002818
9	515	12	2.4644698935415
9	561	13	2.6326438894535
9	603	14	2.8069245121
9	645	15	3.0216319018028
9	687	16	3.0632523675972
9	729	17	3.177142178271
9	771	18	3.300491734001
9	813	19	3.2012017058203
9	855	20	3.6552234675291
9	897	21	3.4632597372821
9	939	22	3.7394071035308
9	981	23	3.9996373991253
9	1027	24	4.0795227994611
9	1073	25	4.2577197781357
9	1119	26	4.6318613885514
8	101	3	0.55805952177383
8	147	4	0.65064623287879
8	193	5	0.57699319824576
8	239	6	0.5715695535019
8	285	7	0.57384029768407
8	331	8	0.59406959697604
8	377	9	0.53742207475007
8	423	10	0.62527605751529
8	469	11	0.57118876741268
8	515	12	0.5757304045558
8	561	13	0.6010153650865
8	603	14	0.62256925908849
8	645	15	0.65559006863274
8	687	16	0.61251655072905
8	729	17	0.60406279731542
8	771	18	0.59978133180179
8	813	19	0.51997029853054
8	855	20	0.63168664217927
8	897	21	0.52533702239394
8	939	22	0.57321821879595
8	981	23	0.60879939760082
8	1027	24	0.58933935482055
8	1073	25	0.59763250672258
8	1119	26	0.65319490331225
5	55	2	1.2341948287431
5	101	3	1.7922543505169
5	147	4	2.4429005833957
5	193	5	3.0198937816415
5	239	6	3.5914633351434
5	285	7	4.1653036328275
5	331	8	4.7593732298035
5	377	9	5.2967953045536
5	423	10	5.9220713620689
5	469	11	6.4932601294816
5	515	12	7.0689905340373
5	561	13	7.6700058991238
5	603	14	8.2925751582123
5	645	15	8.9481652268451
5	687	16	9.5606817775741
5	729	17	10.16474457489
5	771	18	10.764525906691
5	813	19	11.284496205222
5	855	20	11.916182847401
5	897	21	12.441519869795
5	939	22	13.014738088591
5	981	23	13.623537486192
5	1027	24	14.212876841012
5	1073	25	14.810509347735
5	1119	26	15.463704251047
3	11	1	133.35
3	55	2	133.35
3	101	3	133.35
3	147	4	133.35
3	193	5	133.35
3	239	6	133.35
3	285	7	133.35
3	331	8	133.35
3	377	9	133.35
3	423	10	133.35
3	469	11	133.35
3	515	12	133.35
3	561	13	133.35
3	603	14	133.35
3	645	15	133.35
3	687	16	133.35
3	729	17	133.35
3	771	18	133.35
3	813	19	133.35
3	855	20	133.35
3	897	21	133.35
3	939	22	133.35
3	981	23	133.35
3	1027	24	133.35
3	1073	25	133.35
3	1119	26	133.35
2	11	1	239.57464268111
2	55	2	239.57464268111
2	101	3	238.60700153538
2	147	4	237.07782171228
2	193	5	235
2	239	6	232.2629872658
2	285	7	228.92111491878
2	331	8	225.01334639472
2	377	9	220.53125263801
2	423	10	215.48429001642
2	469	11	209.84530173423
2	515	12	203.59147990519
2	561	13	196.78297800378
2	603	14	189.38676472181
2	645	15	181.3776242209
2	687	16	172.71969634114
2	729	17	163.45279249558
2	771	18	153.55223933107
2	813	19	143.04051586872
2	855	20	131.98165069234
2	897	21	120.35421361513
2	939	22	108.15340138606
2	981	23	95.396644618208
2	1027	24	82.039761495518
2	1073	25	68.108635335991
2	1119	26	53.582386311948

