version 2
run WithBeaconing-0-20190708-14:20:36-15280
attr configname WithBeaconing
attr datetime 20190708-14:20:36
attr experiment WithBeaconing
attr inifile omnetpp.ini
attr iterationvars ""
attr iterationvarsf ""
attr measurement ""
attr network TutorialScenario
attr processid 15280
attr repetition 0
attr replication #0
attr resultdir results
attr runnumber 0
attr seedset 0
param *.rsu[*].appl.sendBeacons true
param *.node[*].appl.sendBeacons true
param **.debug false
param **.coreDebug false
param *.playgroundSizeX 2500m
param *.playgroundSizeY 2500m
param *.playgroundSizeZ 50m
param *.annotations.draw true
param *.manager.updateInterval 1s
param *.manager.host "\"localhost\""
param *.manager.port 9999
param *.manager.autoShutdown true
param *.manager.launchConfig "xmldoc(\"intersect.launchd.xml\")"
param *.rsu[0].mobility.x 135
param *.rsu[0].mobility.y 135
param *.rsu[0].mobility.z 0
param *.rsu[*].applType "\"TutorialAppl\""
param *.rsu[*].appl.headerLength "80 bit"
param *.rsu[*].appl.sendBeacons false
param *.rsu[*].appl.dataOnSch false
param *.rsu[*].appl.beaconInterval 1s
param *.rsu[*].appl.beaconUserPriority 1
param *.rsu[*].appl.dataUserPriority 1
param *.connectionManager.sendDirect true
param *.connectionManager.maxInterfDist 2600m
param *.connectionManager.drawMaxIntfDist false
param *.**.nic.mac1609_4.useServiceChannel false
param *.**.nic.mac1609_4.txPower 20mW
param *.**.nic.mac1609_4.bitrate 6Mbps
param *.**.nic.phy80211p.sensitivity -89dBm
param *.**.nic.phy80211p.useThermalNoise true
param *.**.nic.phy80211p.thermalNoise -110dBm
param *.**.nic.phy80211p.decider "xmldoc(\"config.xml\")"
param *.**.nic.phy80211p.analogueModels "xmldoc(\"config.xml\")"
param *.**.nic.phy80211p.usePropagationDelay true
param *.**.nic.phy80211p.antenna "xmldoc(\"antenna.xml\", \"/root/Antenna[@id='monopole']\")"
param *.node[*].applType "\"TutorialAppl\""
param *.node[*].appl.headerLength "80 bit"
param *.node[*].appl.sendBeacons false
param *.node[*].appl.dataOnSch false
param *.node[*].appl.beaconInterval 1s
param *.node[*].veinsmobilityType.debug true
param *.node[*].veinsmobility.x 0
param *.node[*].veinsmobility.y 0
param *.node[*].veinsmobility.z 1.895

vector 0 TutorialScenario.node[0].veinsmobility posx ETV
vector 1 TutorialScenario.node[0].veinsmobility posy ETV
vector 2 TutorialScenario.node[1].veinsmobility posx ETV
vector 3 TutorialScenario.node[1].veinsmobility posy ETV
0	11	1	30.422187683101
1	11	1	136.65
2	11	1	239.57464268111
3	11	1	133.35
vector 4 TutorialScenario.node[0].veinsmobility speed ETV
vector 5 TutorialScenario.node[1].veinsmobility speed ETV
0	75	2	30.422187683101
1	75	2	136.65
2	75	2	239.57464268111
3	75	2	133.35
4	75	2	1.2109725133778
5	75	2	1.2341948287431
vector 6 TutorialScenario.node[0].veinsmobility acceleration ETV
vector 7 TutorialScenario.node[0].veinsmobility co2emission ETV
vector 8 TutorialScenario.node[1].veinsmobility acceleration ETV
vector 9 TutorialScenario.node[1].veinsmobility co2emission ETV
7	139	3	1.4286800823197
7	203	4	1.5577064475287
7	267	5	1.7092818832741
7	331	6	1.8385036853332
7	395	7	1.9963128043507
7	459	8	2.0811213613671
7	523	9	2.2664801458022
7	587	10	2.3370145304042
7	651	11	2.4502768302097
7	715	12	2.4241301800455
7	779	13	2.630971754009
7	843	14	2.8149945235617
7	907	15	2.8069472429189
7	971	16	2.9916118218182
7	1035	17	3.0952260763087
7	1099	18	3.4194703614432
7	1163	19	3.4966184787262
7	1227	20	3.7615303901243
7	1291	21	3.9074669428927
7	1355	22	3.8854498720785
7	1419	23	3.8450283759157
7	1483	24	4.4071548036909
7	1547	25	4.4692177704197
7	1611	26	4.2872711261094
6	139	3	0.54968545746058
6	203	4	0.58851045525633
6	267	5	0.63086565563455
6	331	6	0.6317670133058
6	395	7	0.65481480854563
6	459	8	0.6159835693147
6	523	9	0.65469122040086
6	587	10	0.61313765779138
6	651	11	0.60551246041432
6	715	12	0.52809542888776
6	779	13	0.57878504366614
6	843	14	0.60755659392103
6	907	15	0.5493060577102
6	971	16	0.57800379684195
6	1035	17	0.57033664274029
6	1099	18	0.64156030632556
6	1163	19	0.61649044850841
6	1227	20	0.65461781926453
6	1291	21	0.6495396524109
6	1355	22	0.59595457564108
6	1419	23	0.54427744102664
6	1483	24	0.66041989995167
6	1547	25	0.63103650726378
6	1611	26	0.54464652201161
4	139	3	1.7606579708384
4	203	4	2.3491684260947
4	267	5	2.9800340817293
4	331	6	3.6118010950351
4	395	7	4.2666159035807
4	459	8	4.8825994728954
4	523	9	5.5372906932963
4	587	10	6.1504283510876
4	651	11	6.755940811502
4	715	12	7.2840362403897
4	779	13	7.8628212840559
4	843	14	8.4703778779769
4	907	15	9.0196839356871
4	971	16	9.597687732529
4	1035	17	10.168024375269
4	1099	18	10.809584681595
4	1163	19	11.426075130103
4	1227	20	12.080692949368
4	1291	21	12.730232601779
4	1355	22	13.32618717742
4	1419	23	13.870464618446
4	1483	24	14.530884518398
4	1547	25	15.161921025662
4	1611	26	15.706567547674
1	139	3	136.65
1	203	4	136.65
1	267	5	136.65
1	331	6	136.65
1	395	7	136.65
1	459	8	136.65
1	523	9	136.65
1	587	10	136.65
1	651	11	136.65
1	715	12	136.65
1	779	13	136.65
1	843	14	136.65
1	907	15	136.65
1	971	16	136.65
1	1035	17	136.65
1	1099	18	136.65
1	1163	19	136.65
1	1227	20	136.65
1	1291	21	136.65
1	1355	22	136.65
1	1419	23	136.65
1	1483	24	136.65
1	1547	25	136.65
1	1611	26	136.65
0	139	3	31.360734724777
0	203	4	32.860480086749
0	267	5	34.957523898863
0	331	6	37.542629866687
0	395	7	40.864942279345
0	459	8	44.852206063574
0	523	9	49.442010955964
0	587	10	54.691829502037
0	651	11	60.559006580769
0	715	12	67.04575907949
0	779	13	74.092314022
0	843	14	81.68080835427
0	907	15	89.889526145287
0	971	16	98.666197604174
0	1035	17	108.00153035719
0	1099	18	117.91667623634
0	1163	19	128.45745158842
0	1227	20	139.63036261104
0	1291	21	151.41408624082
0	1355	22	163.85350916869
0	1419	23	176.89858782278
0	1483	24	190.52143180496
0	1547	25	204.75131525686
0	1611	26	219.61670749629
9	139	3	1.4380346683728
9	203	4	1.612253122633
9	267	5	1.6781562745319
9	331	6	1.7822494657681
9	395	7	1.8936529887538
9	459	8	2.0309544516367
9	523	9	2.0652797113061
9	587	10	2.3072731207466
9	651	11	2.3423650002818
9	715	12	2.4644698935415
9	779	13	2.6326438894535
9	843	14	2.8069245121
9	907	15	3.0216319018028
9	971	16	3.0632523675972
9	1035	17	3.177142178271
9	1099	18	3.300491734001
9	1163	19	3.2012017058203
9	1227	20	3.6552234675291
9	1291	21	3.4632597372821
9	1355	22	3.7394071035308
9	1419	23	3.9996373991253
9	1483	24	4.0795227994611
9	1547	25	4.2577197781357
9	1611	26	4.6318613885514
8	139	3	0.55805952177383
8	203	4	0.65064623287879
8	267	5	0.57699319824576
8	331	6	0.5715695535019
8	395	7	0.57384029768407
8	459	8	0.59406959697604
8	523	9	0.53742207475007
8	587	10	0.62527605751529
8	651	11	0.57118876741268
8	715	12	0.5757304045558
8	779	13	0.6010153650865
8	843	14	0.62256925908849
8	907	15	0.65559006863274
8	971	16	0.61251655072905
8	1035	17	0.60406279731542
8	1099	18	0.59978133180179
8	1163	19	0.51997029853054
8	1227	20	0.63168664217927
8	1291	21	0.52533702239394
8	1355	22	0.57321821879595
8	1419	23	0.60879939760082
8	1483	24	0.58933935482055
8	1547	25	0.59763250672258
8	1611	26	0.65319490331225
5	139	3	1.7922543505169
5	203	4	2.4429005833957
5	267	5	3.0198937816415
5	331	6	3.5914633351434
5	395	7	4.1653036328275
5	459	8	4.7593732298035
5	523	9	5.2967953045536
5	587	10	5.9220713620689
5	651	11	6.4932601294816
5	715	12	7.0689905340373
5	779	13	7.6700058991238
5	843	14	8.2925751582123
5	907	15	8.9481652268451
5	971	16	9.5606817775741
5	1035	17	10.16474457489
5	1099	18	10.764525906691
5	1163	19	11.284496205222
5	1227	20	11.916182847401
5	1291	21	12.441519869795
5	1355	22	13.014738088591
5	1419	23	13.623537486192
5	1483	24	14.212876841012
5	1547	25	14.810509347735
5	1611	26	15.463704251047
3	139	3	133.35
3	203	4	133.35
3	267	5	133.35
3	331	6	133.35
3	395	7	133.35
3	459	8	133.35
3	523	9	133.35
3	587	10	133.35
3	651	11	133.35
3	715	12	133.35
3	779	13	133.35
3	843	14	133.35
3	907	15	133.35
3	971	16	133.35
3	1035	17	133.35
3	1099	18	133.35
3	1163	19	133.35
3	1227	20	133.35
3	1291	21	133.35
3	1355	22	133.35
3	1419	23	133.35
3	1483	24	133.35
3	1547	25	133.35
3	1611	26	133.35
2	139	3	238.60700153538
2	203	4	237.07782171228
2	267	5	235
2	331	6	232.2629872658
2	395	7	228.92111491878
2	459	8	225.01334639472
2	523	9	220.53125263801
2	587	10	215.48429001642
2	651	11	209.84530173423
2	715	12	203.59147990519
2	779	13	196.78297800378
2	843	14	189.38676472181
2	907	15	181.3776242209
2	971	16	172.71969634114
2	1035	17	163.45279249558
2	1099	18	153.55223933107
2	1163	19	143.04051586872
2	1227	20	131.98165069234
2	1291	21	120.35421361513
2	1355	22	108.15340138606
2	1419	23	95.396644618208
2	1483	24	82.039761495518
2	1547	25	68.108635335991
2	1611	26	53.582386311948

